@<TRIPOS>MOLECULE
InGaN
 96 152 0 0 0
SMALL
GASTEIGER

@<TRIPOS>ATOM
      1 ZN          0.0000    0.0000    0.0000 Zn      1  UNL1        0.0000
      2 S           1.5945    0.9206    0.6481 S.3     1  UNL1        0.0000
      3 ZN          1.5945    2.7618    0.0000 Zn      1  UNL1        0.0000
      4 S           0.0000    3.6823    0.6481 S.3     1  UNL1        0.0000
      5 S           0.0000    0.0000    3.2406 S.3     1  UNL1        0.0000
      6 ZN          1.5945    0.9206    2.5925 Zn      1  UNL1        0.0000
      7 S           1.5945    2.7618    3.2406 S.3     1  UNL1        0.0000
      8 ZN          0.0000    3.6823    2.5925 Zn      1  UNL1        0.0000
      9 ZN          3.1890    0.0000    0.0000 Zn      1  UNL1        0.0000
     10 S           4.7835    0.9206    0.6481 S.3     1  UNL1        0.0000
     11 ZN          4.7835    2.7618    0.0000 Zn      1  UNL1        0.0000
     12 S           3.1890    3.6823    0.6481 S.3     1  UNL1        0.0000
     13 S           3.1890    0.0000    3.2406 S.3     1  UNL1        0.0000
     14 ZN          4.7835    0.9206    2.5925 Zn      1  UNL1        0.0000
     15 S           4.7835    2.7618    3.2406 S.3     1  UNL1        0.0000
     16 ZN          3.1890    3.6823    2.5925 Zn      1  UNL1        0.0000
     17 ZN          6.3780    0.0000    0.0000 Zn      1  UNL1        0.0000
     18 S           7.9725    0.9206    0.6481 S.3     1  UNL1        0.0000
     19 ZN          7.9725    2.7618    0.0000 Zn      1  UNL1        0.0000
     20 S           6.3780    3.6823    0.6481 S.3     1  UNL1        0.0000
     21 S           6.3780    0.0000    3.2406 S.3     1  UNL1        0.0000
     22 ZN          7.9725    0.9206    2.5925 Zn      1  UNL1        0.0000
     23 S           7.9725    2.7618    3.2406 S.3     1  UNL1        0.0000
     24 ZN          6.3780    3.6823    2.5925 Zn      1  UNL1        0.0000
     25 ZN          0.0000    5.5235    0.0000 Zn      1  UNL1        0.0000
     26 S           1.5945    6.4441    0.6481 S.3     1  UNL1        0.0000
     27 ZN          1.5945    8.2853    0.0000 Zn      1  UNL1        0.0000
     28 S           0.0000    9.2058    0.6481 S.3     1  UNL1        0.0000
     29 S           0.0000    5.5235    3.2406 S.3     1  UNL1        0.0000
     30 ZN          1.5945    6.4441    2.5925 Zn      1  UNL1        0.0000
     31 S           1.5945    8.2853    3.2406 S.3     1  UNL1        0.0000
     32 ZN          0.0000    9.2058    2.5925 Zn      1  UNL1        0.0000
     33 ZN          3.1890    5.5235    0.0000 Zn      1  UNL1        0.0000
     34 S           4.7835    6.4441    0.6481 S.3     1  UNL1        0.0000
     35 ZN          4.7835    8.2853    0.0000 Zn      1  UNL1        0.0000
     36 S           3.1890    9.2058    0.6481 S.3     1  UNL1        0.0000
     37 S           3.1890    5.5235    3.2406 S.3     1  UNL1        0.0000
     38 ZN          4.7835    6.4441    2.5925 Zn      1  UNL1        0.0000
     39 S           4.7835    8.2853    3.2406 S.3     1  UNL1        0.0000
     40 ZN          3.1890    9.2058    2.5925 Zn      1  UNL1        0.0000
     41 ZN          6.3780    5.5235    0.0000 Zn      1  UNL1        0.0000
     42 S           7.9725    6.4441    0.6481 S.3     1  UNL1        0.0000
     43 ZN          7.9725    8.2853    0.0000 Zn      1  UNL1        0.0000
     44 S           6.3780    9.2058    0.6481 S.3     1  UNL1        0.0000
     45 S           6.3780    5.5235    3.2406 S.3     1  UNL1        0.0000
     46 ZN          7.9725    6.4441    2.5925 Zn      1  UNL1        0.0000
     47 S           7.9725    8.2853    3.2406 S.3     1  UNL1        0.0000
     48 ZN          6.3780    9.2058    2.5925 Zn      1  UNL1        0.0000
     49 ZN          0.0000    0.0000    5.1850 Zn      1  UNL1        0.0000
     50 S           1.5945    0.9206    5.8331 S.3     1  UNL1        0.0000
     51 ZN          1.5945    2.7618    5.1850 Zn      1  UNL1        0.0000
     52 S           0.0000    3.6823    5.8331 S.3     1  UNL1        0.0000
     53 S           0.0000    0.0000    8.4256 S.3     1  UNL1        0.0000
     54 ZN          1.5945    0.9206    7.7775 Zn      1  UNL1        0.0000
     55 S           1.5945    2.7618    8.4256 S.3     1  UNL1        0.0000
     56 ZN          0.0000    3.6823    7.7775 Zn      1  UNL1        0.0000
     57 ZN          3.1890    0.0000    5.1850 Zn      1  UNL1        0.0000
     58 S           4.7835    0.9206    5.8331 S.3     1  UNL1        0.0000
     59 ZN          4.7835    2.7618    5.1850 Zn      1  UNL1        0.0000
     60 S           3.1890    3.6823    5.8331 S.3     1  UNL1        0.0000
     61 S           3.1890    0.0000    8.4256 S.3     1  UNL1        0.0000
     62 ZN          4.7835    0.9206    7.7775 Zn      1  UNL1        0.0000
     63 S           4.7835    2.7618    8.4256 S.3     1  UNL1        0.0000
     64 ZN          3.1890    3.6823    7.7775 Zn      1  UNL1        0.0000
     65 ZN          6.3780    0.0000    5.1850 Zn      1  UNL1        0.0000
     66 S           7.9725    0.9206    5.8331 S.3     1  UNL1        0.0000
     67 ZN          7.9725    2.7618    5.1850 Zn      1  UNL1        0.0000
     68 S           6.3780    3.6823    5.8331 S.3     1  UNL1        0.0000
     69 S           6.3780    0.0000    8.4256 S.3     1  UNL1        0.0000
     70 ZN          7.9725    0.9206    7.7775 Zn      1  UNL1        0.0000
     71 S           7.9725    2.7618    8.4256 S.3     1  UNL1        0.0000
     72 ZN          6.3780    3.6823    7.7775 Zn      1  UNL1        0.0000
     73 ZN          0.0000    5.5235    5.1850 Zn      1  UNL1        0.0000
     74 S           1.5945    6.4441    5.8331 S.3     1  UNL1        0.0000
     75 ZN          1.5945    8.2853    5.1850 Zn      1  UNL1        0.0000
     76 S           0.0000    9.2058    5.8331 S.3     1  UNL1        0.0000
     77 S           0.0000    5.5235    8.4256 S.3     1  UNL1        0.0000
     78 ZN          1.5945    6.4441    7.7775 Zn      1  UNL1        0.0000
     79 S           1.5945    8.2853    8.4256 S.3     1  UNL1        0.0000
     80 ZN          0.0000    9.2058    7.7775 Zn      1  UNL1        0.0000
     81 ZN          3.1890    5.5235    5.1850 Zn      1  UNL1        0.0000
     82 S           4.7835    6.4441    5.8331 S.3     1  UNL1        0.0000
     83 ZN          4.7835    8.2853    5.1850 Zn      1  UNL1        0.0000
     84 S           3.1890    9.2058    5.8331 S.3     1  UNL1        0.0000
     85 S           3.1890    5.5235    8.4256 S.3     1  UNL1        0.0000
     86 ZN          4.7835    6.4441    7.7775 Zn      1  UNL1        0.0000
     87 S           4.7835    8.2853    8.4256 S.3     1  UNL1        0.0000
     88 ZN          3.1890    9.2058    7.7775 Zn      1  UNL1        0.0000
     89 ZN          6.3780    5.5235    5.1850 Zn      1  UNL1        0.0000
     90 S           7.9725    6.4441    5.8331 S.3     1  UNL1        0.0000
     91 ZN          7.9725    8.2853    5.1850 Zn      1  UNL1        0.0000
     92 S           6.3780    9.2058    5.8331 S.3     1  UNL1        0.0000
     93 S           6.3780    5.5235    8.4256 S.3     1  UNL1        0.0000
     94 ZN          7.9725    6.4441    7.7775 Zn      1  UNL1        0.0000
     95 S           7.9725    8.2853    8.4256 S.3     1  UNL1        0.0000
     96 ZN          6.3780    9.2058    7.7775 Zn      1  UNL1        0.0000
@<TRIPOS>BOND
     1     9    10    1
     2     9     2    1
     3    17    18    1
     4    17    10    1
     5    19    20    1
     6    19    18    1
     7    41    42    1
     8    41    34    1
     9    41    20    1
    10    43    42    1
    11    43    44    1
    12    27    36    1
    13    27    26    1
    14    27    28    1
    15    11    20    1
    16    11    12    1
    17    11    10    1
    18    35    36    1
    19    35    34    1
    20    35    44    1
    21    33    34    1
    22    33    26    1
    23    33    12    1
    24     1     2    1
    25    25    26    1
    26    25     4    1
    27     3    12    1
    28     3     4    1
    29     3     2    1
    30    42    46    1
    31    36    40    1
    32    34    38    1
    33    20    24    1
    34    26    30    1
    35    18    22    1
    36    28    32    1
    37    12    16    1
    38    10    14    1
    39    44    48    1
    40     4     8    1
    41     2     6    1
    42    32    31    1
    43    30    31    1
    44    30    37    1
    45    30    29    1
    46    38    45    1
    47    38    39    1
    48    38    37    1
    49    40    31    1
    50    40    39    1
    51    46    47    1
    52    46    45    1
    53    48    47    1
    54    48    39    1
    55     6     5    1
    56     6     7    1
    57     6    13    1
    58    24    45    1
    59    24    15    1
    60    24    23    1
    61    22    21    1
    62    22    23    1
    63     8     7    1
    64     8    29    1
    65    16     7    1
    66    16    15    1
    67    16    37    1
    68    14    13    1
    69    14    15    1
    70    14    21    1
    71    31    75    1
    72     5    49    1
    73    47    91    1
    74     7    51    1
    75    45    89    1
    76    13    57    1
    77    15    59    1
    78    39    83    1
    79    21    65    1
    80    37    81    1
    81    23    67    1
    82    29    73    1
    83    59    60    1
    84    59    68    1
    85    59    58    1
    86    65    66    1
    87    65    58    1
    88    67    68    1
    89    67    66    1
    90    73    74    1
    91    73    52    1
    92    75    76    1
    93    75    74    1
    94    75    84    1
    95    81    60    1
    96    81    82    1
    97    81    74    1
    98    83    82    1
    99    83    84    1
   100    83    92    1
   101    89    82    1
   102    89    68    1
   103    89    90    1
   104    91    90    1
   105    91    92    1
   106    49    50    1
   107    57    50    1
   108    57    58    1
   109    51    60    1
   110    51    52    1
   111    51    50    1
   112    60    64    1
   113    76    80    1
   114    82    86    1
   115    74    78    1
   116    52    56    1
   117    84    88    1
   118    68    72    1
   119    90    94    1
   120    66    70    1
   121    50    54    1
   122    92    96    1
   123    58    62    1
   124    88    87    1
   125    88    79    1
   126    86    87    1
   127    86    93    1
   128    86    85    1
   129    94    95    1
   130    94    93    1
   131    96    87    1
   132    96    95    1
   133    80    79    1
   134    62    61    1
   135    62    63    1
   136    62    69    1
   137    54    61    1
   138    54    55    1
   139    54    53    1
   140    72    93    1
   141    72    63    1
   142    72    71    1
   143    64    63    1
   144    64    85    1
   145    64    55    1
   146    78    85    1
   147    78    77    1
   148    78    79    1
   149    70    69    1
   150    70    71    1
   151    56    55    1
   152    56    77    1
